parallel/peak_load/100pc/TNB_DUMA_VLN.Txt

SYMMETRICAL COMPONENT VOLTAGES BY BUS (for 3-phase buses)

Bus               Mag:   V1 (kV)    p.u.     V2 (kV)   %V2/V1    V0 (kV)    %V0/V1

ppu_duma_33kv        18.72     0.9826  1.181E-008  6.311E-008 1.239E-009 6.62E-009
ppu_duma_11kv        5.838     0.9192  1.225E-008  2.098E-007 3.127E-008 5.357E-007
rpplngi2              5.97       0.94  1.223E-008  2.049E-007 3.187E-008 5.339E-007
pdtjlnmasjid          6.07     0.9557  1.224E-008  2.016E-007 3.233E-008 5.327E-007
bella                6.137     0.9663  1.224E-008  1.994E-007 3.264E-008 5.319E-007
pstpdgn              6.171     0.9716  1.224E-008  1.984E-007 3.28E-008 5.315E-007
pamdra               5.854     0.9217  1.224E-008  2.092E-007 3.135E-008 5.355E-007
duma4                5.907     0.9301  1.224E-008  2.071E-007 3.489E-008 5.907E-007
plsdra               6.022     0.9483  1.223E-008  2.03E-007 4.15E-008 6.892E-007
ssu_uptwres_ir1      6.039     0.9509  1.222E-008  2.024E-007 4.16E-008 6.889E-007
atria_1              6.037     0.9506  1.225E-008  2.03E-007 3.215E-008 5.325E-007
hawker               6.069     0.9557  1.219E-008  2.008E-007 3.257E-008 5.365E-007
prmte                5.941     0.9355  1.209E-008  2.035E-007 3.721E-008 6.263E-007
prmta                 5.96     0.9384  1.207E-008  2.025E-007 3.73E-008 6.258E-007
pmontb               5.977     0.9412  1.206E-008  2.018E-007 3.815E-008 6.383E-007
duma7                 5.89     0.9274  1.406E-008  2.387E-007 3.245E-008 5.509E-007
haus                 6.002      0.945  1.698E-008  2.828E-007 2.265E-007 3.774E-006
duma6                6.307     0.9932  3.163E-008  5.014E-007 9.976E-007 1.582E-005
duma13               6.587      1.037  4.933E-008  7.489E-007 1.833E-006 2.782E-005
ssu_duma5_im2        6.622      1.043  5.235E-008  7.906E-007 1.843E-006 2.783E-005
plngi_b               5.92     0.9322  1.224E-008  2.068E-007 3.159E-008 5.336E-007
plngi_d              5.964     0.9391  1.224E-008  2.053E-007 3.177E-008 5.326E-007
pdtlitrak            6.181     0.9733  1.219E-008  1.973E-007 3.35E-008 5.419E-007
duma12               6.323     0.9956  1.217E-008  1.924E-007 3.444E-008 5.446E-007
tmngh4               6.461      1.017  1.216E-008  1.883E-007 4.446E-008 6.881E-007
ssu_tmegah3_ir1      6.516      1.026  1.216E-008  1.866E-007 4.861E-008 7.46E-007
tmngh2               6.539       1.03  1.216E-008  1.859E-007 5.039E-008 7.706E-007
sprk9                6.121     0.9638  1.224E-008  1.999E-007 3.269E-008 5.34E-007
bomba                6.138     0.9666  1.224E-008  1.994E-007 3.354E-008 5.465E-007
sprk8                6.181     0.9733  1.225E-008  1.982E-007 3.576E-008 5.785E-007
ssu_uptwres_im2       5.89     0.9275  1.221E-008  2.073E-007 3.392E-008 5.759E-007
maybank              5.971     0.9401  1.219E-008  2.041E-007 3.427E-008 5.74E-007
duma8                5.986     0.9426  1.219E-008  2.036E-007 3.497E-008 5.842E-007
ssu_dsarcntr_ir1     5.881      0.926  1.225E-008  2.082E-007 3.144E-008 5.345E-007
duma9                6.076     0.9567  1.226E-008  2.018E-007 3.238E-008 5.329E-007
duma1                6.174     0.9722  1.227E-008  1.987E-007 3.283E-008 5.318E-007
elite                 6.21     0.9778  1.227E-008  1.976E-007  3.3E-008 5.314E-007
duma10               6.025     0.9486  1.222E-008  2.028E-007 3.203E-008 5.316E-007
balaipolis           6.026     0.9489  1.222E-008  2.028E-007 3.204E-008 5.316E-007
ppu_duma_vcb1            0          0          0          0         0         0
